<?xml version="1.0" encoding="UTF-8"?>

<!-- generated on 2026-02-22T02:26:35.331242+05:30 by Eclipse SUMO sumo 1.26.0
-->

<sumoConfiguration xmlns:xsi="http://www.w3.org/2001/XMLSchema-instance"
    xsi:noNamespaceSchemaLocation="http://sumo.dlr.de/xsd/sumoConfiguration.xsd">

    <input>
        <net-file value="map.net.xml"/>
        <route-files value="route.rou.xml"/>
    </input>

    <time>
        <step-length value="1.0"/>
    </time>

</sumoConfiguration>
