<?xml version="1.0" encoding="UTF-8"?>

<!-- generated on 2026-02-21T20:48:46.629500+05:30 by Eclipse SUMO netedit 1.26.0
<neteditConfiguration xmlns:xsi="http://www.w3.org/2001/XMLSchema-instance" xsi:noNamespaceSchemaLocation="http://sumo.dlr.de/xsd/neteditConfiguration.xsd">

    <input>
        <sumocfg-file value="C:\sumo_simulations\smart_traffic_system\karvenagarsim.sumocfg"/>
        <sumo-net-file value="C:\smart_traffic_system\sumo_files\map.net.xml"/>
    </input>

    <output>
        <tls-file value="C:\sumo_simulations\smart_traffic_system\karvenagarsim.tll.xml"/>
        <output-file value="C:\smart_traffic_system\sumo_files\map.net.xml"/>
    </output>

    <processing>
        <geometry.min-radius.fix.railways value="false"/>
        <geometry.avoid-overlap value="false"/>
        <geometry.max-grade.fix value="false"/>
        <offset.disable-normalization value="true"/>
        <lefthand value="1"/>
    </processing>

    <junctions>
        <no-turnarounds value="true"/>
        <junctions.corner-detail value="5"/>
        <junctions.limit-turn-speed value="5.50"/>
        <rectangular-lane-cut value="0"/>
    </junctions>

    <pedestrian>
        <walkingareas value="0"/>
    </pedestrian>

</neteditConfiguration>
-->

<net version="1.20" junctionCornerDetail="5" lefthand="true" limitTurnSpeed="5.50" avoidOverlap="0" xmlns:xsi="http://www.w3.org/2001/XMLSchema-instance" xsi:noNamespaceSchemaLocation="http://sumo.dlr.de/xsd/net_file.xsd">

    <location netOffset="-373877.28,-2044439.01" convBoundary="472.73,0.00,2388.20,2594.09" origBoundary="73.800941,18.486650,73.908592,18.557116" projParameter="+proj=utm +zone=43 +ellps=WGS84 +datum=WGS84 +units=m +no_defs"/>

    <type id="highway.footway" priority="1" numLanes="1" speed="2.78" allow="pedestrian" oneway="1" width="2.00"/>
    <type id="highway.primary" priority="12" numLanes="2" speed="27.78" disallow="tram rail_urban rail rail_electric rail_fast ship container cable_car subway aircraft wheelchair scooter drone" oneway="0"/>
    <type id="highway.primary_link" priority="7" numLanes="1" speed="22.22" disallow="tram rail_urban rail rail_electric rail_fast ship container cable_car subway aircraft wheelchair scooter drone" oneway="0"/>
    <type id="highway.residential" priority="3" numLanes="1" speed="13.89" disallow="tram rail_urban rail rail_electric rail_fast ship container cable_car subway aircraft wheelchair scooter drone" oneway="0"/>
    <type id="highway.secondary" priority="11" numLanes="1" speed="27.78" disallow="tram rail_urban rail rail_electric rail_fast ship container cable_car subway aircraft wheelchair scooter drone" oneway="0"/>
    <type id="highway.service" priority="1" numLanes="1" speed="5.56" allow="pedestrian delivery bicycle" oneway="0"/>
    <type id="highway.steps" priority="1" numLanes="1" speed="1.39" allow="pedestrian" oneway="1" width="2.00"/>
    <type id="highway.tertiary" priority="10" numLanes="1" speed="22.22" disallow="tram rail_urban rail rail_electric rail_fast ship container cable_car subway aircraft wheelchair scooter drone" oneway="0"/>

    <edge id=":1_0" function="internal">
        <lane id=":1_0_0" index="0" disallow="tram rail_urban rail rail_electric rail_fast ship container cable_car subway aircraft wheelchair scooter drone" speed="7.63" length="13.32" shape="901.09,214.46 897.93,218.14 896.22,221.26 895.98,223.82 897.20,225.82"/>
        <lane id=":1_0_1" index="1" disallow="tram rail_urban rail rail_electric rail_fast ship container cable_car subway aircraft wheelchair scooter drone" speed="6.80" length="10.38" shape="901.09,214.46 898.90,217.13 897.88,219.51 898.02,221.61 899.32,223.42"/>
    </edge>
    <edge id=":1_2" function="internal">
        <lane id=":1_2_0" index="0" disallow="tram rail_urban rail rail_electric rail_fast ship container cable_car subway aircraft wheelchair scooter drone" speed="22.22" length="13.82" shape="887.14,216.12 889.98,219.15 891.99,221.16 894.09,223.07 897.20,225.82"/>
        <lane id=":1_2_1" index="1" disallow="tram rail_urban rail rail_electric rail_fast ship container cable_car subway aircraft wheelchair scooter drone" speed="22.22" length="13.82" shape="889.49,213.94 892.27,216.90 894.23,218.87 896.28,220.74 899.32,223.42"/>
    </edge>
    <edge id=":1_4" function="internal">
        <lane id=":1_4_0" index="0" disallow="tram rail_urban rail rail_electric rail_fast ship container cable_car subway aircraft wheelchair scooter drone" speed="6.95" length="11.41" shape="889.49,213.94 891.56,215.38 893.85,215.46 896.35,214.18 899.07,211.54"/>
    </edge>
    <edge id=":10_0" function="internal">
        <lane id=":10_0_0" index="0" disallow="tram rail_urban rail rail_electric rail_fast ship container cable_car subway aircraft wheelchair scooter drone" speed="6.48" length="9.20" shape="877.07,1213.53 879.58,1213.64 881.43,1214.54 882.61,1216.24 883.14,1218.74"/>
    </edge>
    <edge id=":10_1" function="internal">
        <lane id=":10_1_0" index="0" disallow="tram rail_urban rail rail_electric rail_fast ship container cable_car subway aircraft wheelchair scooter drone" speed="6.58" length="8.98" shape="882.18,1204.37 881.99,1206.76 881.05,1208.55 879.36,1209.74 876.93,1210.33"/>
    </edge>
    <edge id=":10_2" function="internal">
        <lane id=":10_2_0" index="0" disallow="tram rail_urban rail rail_electric rail_fast ship container cable_car subway aircraft wheelchair scooter drone" speed="18.06" length="14.40" shape="885.38,1204.16 886.33,1218.53"/>
        <lane id=":10_2_1" index="1" disallow="tram rail_urban rail rail_electric rail_fast ship container cable_car subway aircraft wheelchair scooter drone" speed="18.06" length="14.40" shape="888.57,1203.95 889.52,1218.32"/>
    </edge>
    <edge id=":10174924354_0" function="internal">
        <lane id=":10174924354_0_0" index="0" allow="pedestrian delivery bicycle" speed="6.09" length="6.25" shape="1003.56,1567.29 1002.83,1569.16 1001.92,1570.48 1000.83,1571.25 999.55,1571.48"/>
    </edge>
    <edge id=":10174924354_1" function="internal">
        <lane id=":10174924354_1_0" index="0" allow="pedestrian delivery bicycle" speed="4.80" length="5.36" shape="1009.19,1571.74 1007.68,1571.49 1006.75,1570.82 1006.40,1569.73 1006.63,1568.21"/>
    </edge>
    <edge id=":10174924354_2" function="internal">
        <lane id=":10174924354_2_0" index="0" disallow="tram rail_urban rail rail_electric rail_fast ship container cable_car subway aircraft wheelchair scooter drone" speed="13.89" length="9.65" shape="1009.19,1571.74 999.55,1571.48"/>
    </edge>
    <edge id=":10174924354_3" function="internal">
        <lane id=":10174924354_3_0" index="0" disallow="tram rail_urban rail rail_electric rail_fast ship container cable_car subway aircraft wheelchair scooter drone" speed="13.89" length="9.67" shape="999.45,1574.68 1009.12,1574.94"/>
    </edge>
    <edge id=":10223449659_0" function="internal">
        <lane id=":10223449659_0_0" index="0" allow="pedestrian delivery bicycle" speed="3.65" length="4.67" shape="873.90,1876.00 874.19,1877.41 874.78,1878.08 875.67,1878.01 876.86,1877.20"/>
    </edge>
    <edge id=":10223449663_0" function="internal">
        <lane id=":10223449663_0_0" index="0" disallow="tram rail_urban rail rail_electric rail_fast ship container cable_car subway aircraft wheelchair scooter drone" speed="27.78" length="9.41" shape="929.96,1705.19 920.55,1705.18"/>
        <lane id=":10223449663_0_1" index="1" disallow="tram rail_urban rail rail_electric rail_fast ship container cable_car subway aircraft wheelchair scooter drone" speed="27.78" length="9.41" shape="929.95,1708.39 920.55,1708.38"/>
    </edge>
    <edge id=":10223449663_2" function="internal">
        <lane id=":10223449663_2_0" index="0" allow="pedestrian delivery bicycle" speed="7.67" length="2.79" shape="929.95,1708.39 927.23,1708.98"/>
    </edge>
    <edge id=":10223449663_8" function="internal">
        <lane id=":10223449663_8_0" index="0" allow="pedestrian delivery bicycle" speed="7.67" length="10.05" shape="927.23,1708.98 925.26,1710.76 924.06,1713.73 923.62,1717.90"/>
    </edge>
    <edge id=":10223449663_3" function="internal">
        <lane id=":10223449663_3_0" index="0" allow="pedestrian delivery bicycle" speed="5.08" length="5.04" shape="926.82,1717.94 927.03,1716.56 927.62,1715.57 928.59,1714.98 929.94,1714.79"/>
    </edge>
    <edge id=":10223449663_4" function="internal">
        <lane id=":10223449663_4_0" index="0" allow="pedestrian delivery bicycle" speed="7.63" length="12.92" shape="926.82,1717.94 926.47,1713.76 925.31,1710.77 923.34,1708.98 920.55,1708.38"/>
    </edge>
    <edge id=":10223449663_5" function="internal">
        <lane id=":10223449663_5_0" index="0" allow="pedestrian delivery bicycle" speed="5.03" length="5.01" shape="920.54,1714.78 921.90,1714.97 922.87,1715.56 923.44,1716.53 923.62,1717.90"/>
    </edge>
    <edge id=":10223449663_6" function="internal">
        <lane id=":10223449663_6_0" index="0" disallow="tram rail_urban rail rail_electric rail_fast ship container cable_car subway aircraft wheelchair scooter drone" speed="27.78" length="9.40" shape="920.54,1714.78 929.94,1714.79"/>
        <lane id=":10223449663_6_1" index="1" disallow="tram rail_urban rail rail_electric rail_fast ship container cable_car subway aircraft wheelchair scooter drone" speed="27.78" length="9.40" shape="920.55,1711.58 929.95,1711.59"/>
    </edge>
    <edge id=":10223455664_0" function="internal">
        <lane id=":10223455664_0_0" index="0" allow="pedestrian delivery bicycle" speed="3.65" length="4.67" shape="1019.09,1416.03 1020.29,1415.23 1020.69,1414.43 1020.29,1413.63 1019.09,1412.83"/>
    </edge>
    <edge id=":10223455667_0" function="internal">
        <lane id=":10223455667_0_0" index="0" allow="pedestrian delivery bicycle" speed="5.32" length="5.33" shape="803.14,1477.30 801.85,1476.98 800.92,1476.26 800.36,1475.12 800.17,1473.58"/>
    </edge>
    <edge id=":10223455667_1" function="internal">
        <lane id=":10223455667_1_0" index="0" disallow="tram rail_urban rail rail_electric rail_fast ship container cable_car subway aircraft wheelchair scooter drone" speed="22.22" length="9.42" shape="803.14,1477.30 793.75,1476.57"/>
    </edge>
    <edge id=":10223455667_2" function="internal">
        <lane id=":10223455667_2_0" index="0" allow="pedestrian delivery bicycle" speed="4.96" length="5.10" shape="796.97,1473.59 796.77,1474.99 796.17,1475.95 795.16,1476.48 793.75,1476.57"/>
    </edge>
    <edge id=":10223455667_3" function="internal">
        <lane id=":10223455667_3_0" index="0" allow="pedestrian delivery bicycle" speed="7.07" length="10.20" shape="796.97,1473.59 797.35,1476.43 798.46,1478.53 800.31,1479.89 802.90,1480.49"/>
    </edge>
    <edge id=":10223455677_0" function="internal">
        <lane id=":10223455677_0_0" index="0" disallow="tram rail_urban rail rail_electric rail_fast ship container cable_car subway aircraft wheelchair scooter drone" speed="13.89" length="1.18" shape="879.75,1549.44 879.74,1550.81"/>
        <lane id=":10223455677_0_1" index="1" disallow="tram rail_urban rail rail_electric rail_fast ship container cable_car subway aircraft wheelchair scooter drone" speed="13.89" length="1.18" shape="882.94,1549.72 882.93,1550.70"/>
    </edge>
    <edge id=":10223455677_2" function="internal">
        <lane id=":10223455677_2_0" index="0" disallow="tram rail_urban rail rail_electric rail_fast ship container cable_car subway aircraft wheelchair scooter drone" speed="13.89" length="0.39" shape="889.33,1550.47 889.33,1550.42 889.33,1550.38 889.33,1550.34 889.34,1550.28"/>
        <lane id=":10223455677_2_1" index="1" disallow="tram rail_urban rail rail_electric rail_fast ship container cable_car subway aircraft wheelchair scooter drone" speed="13.89" length="0.39" shape="886.13,1550.59 886.13,1550.41 886.13,1550.29 886.13,1550.17 886.15,1550.00"/>
    </edge>
    <edge id=":10230252356_0" function="internal">
        <lane id=":10230252356_0_0" index="0" allow="pedestrian delivery bicycle" speed="3.65" length="4.67" shape="1807.94,1945.39 1809.20,1944.68 1809.66,1943.91 1809.32,1943.08 1808.18,1942.19"/>
    </edge>
    <edge id=":10230275694_0" function="internal">
        <lane id=":10230275694_0_0" index="0" disallow="tram rail_urban rail rail_electric rail_fast ship container cable_car subway aircraft wheelchair scooter drone" speed="3.65" length="4.67" shape="2242.61,2042.78 2242.35,2041.36 2241.77,2040.68 2240.88,2040.73 2239.67,2041.52"/>
    </edge>
    <edge id=":10230275696_0" function="internal">
        <lane id=":10230275696_0_0" index="0" allow="pedestrian delivery bicycle" speed="3.65" length="4.67" shape="1499.61,1925.42 1499.56,1926.86 1499.98,1927.65 1500.86,1927.79 1502.21,1927.28"/>
    </edge>
    <edge id=":10230279392_0" function="internal">
        <lane id=":10230279392_0_0" index="0" disallow="tram rail_urban rail rail_electric rail_fast ship container cable_car subway aircraft wheelchair scooter drone" speed="6.07" length="8.26" shape="1689.79,2059.57 1689.09,2061.75 1689.29,2063.58 1690.39,2065.05 1692.40,2066.16"/>
    </edge>
    <edge id=":10230279392_1" function="internal">
        <lane id=":10230279392_1_0" index="0" disallow="tram rail_urban rail rail_electric rail_fast ship container cable_car subway aircraft wheelchair scooter drone" speed="3.65" length="1.44" shape="1689.79,2059.57 1689.98,2061.00"/>
    </edge>
    <edge id=":10230279392_4" function="internal">
        <lane id=":10230279392_4_0" index="0" disallow="tram rail_urban rail rail_electric rail_fast ship container cable_car subway aircraft wheelchair scooter drone" speed="3.65" length="3.23" shape="1689.98,2061.00 1690.52,2061.71 1691.42,2061.70 1692.66,2060.97"/>
    </edge>
    <edge id=":10230279392_2" function="internal">
        <lane id=":10230279392_2_0" index="0" disallow="tram rail_urban rail rail_electric rail_fast ship container cable_car subway aircraft wheelchair scooter drone" speed="3.90" length="2.75" shape="1693.53,2063.17 1692.86,2062.80 1692.50,2062.31 1692.43,2061.70 1692.66,2060.97"/>
    </edge>
    <edge id=":10230279392_3" function="internal">
        <lane id=":10230279392_3_0" index="0" disallow="tram rail_urban rail rail_electric rail_fast ship container cable_car subway aircraft wheelchair scooter drone" speed="3.65" length="1.30" shape="1693.53,2063.17 1692.26,2063.46"/>
    </edge>
    <edge id=":10230279392_5" function="internal">
        <lane id=":10230279392_5_0" index="0" disallow="tram rail_urban rail rail_electric rail_fast ship container cable_car subway aircraft wheelchair scooter drone" speed="3.65" length="3.37" shape="1692.26,2063.46 1692.13,2063.49 1691.47,2064.10 1691.56,2064.99 1692.40,2066.16"/>
    </edge>
    <edge id=":10230361741_0" function="internal">
        <lane id=":10230361741_0_0" index="0" allow="pedestrian delivery bicycle" speed="3.65" length="4.67" shape="1246.51,1827.12 1247.01,1828.47 1247.70,1829.05 1248.57,1828.84 1249.63,1827.86"/>
    </edge>
    <edge id=":10230367133_0" function="internal">
        <lane id=":10230367133_0_0" index="0" allow="pedestrian delivery bicycle" speed="5.56" length="0.74" shape="2182.88,2197.47 2182.74,2197.30 2182.65,2197.18 2182.59,2197.04 2182.53,2196.83"/>
    </edge>
    <edge id=":10239427374_0" function="internal">
        <lane id=":10239427374_0_0" index="0" disallow="tram rail_urban rail rail_electric rail_fast ship container cable_car subway aircraft wheelchair scooter drone" speed="27.78" length="0.30" shape="1055.33,625.20 1055.32,624.91"/>
        <lane id=":10239427374_0_1" index="1" disallow="tram rail_urban rail rail_electric rail_fast ship container cable_car subway aircraft wheelchair scooter drone" speed="27.78" length="0.30" shape="1052.14,625.34 1052.12,625.04"/>
        <lane id=":10239427374_0_2" index="2" disallow="tram rail_urban rail rail_electric rail_fast ship container cable_car subway aircraft wheelchair scooter drone" speed="27.78" length="0.30" shape="1048.94,625.48 1048.93,625.17"/>
    </edge>
    <edge id=":10239494146_0" function="internal">
        <lane id=":10239494146_0_0" index="0" allow="pedestrian delivery bicycle" speed="5.30" length="5.54" shape="915.11,192.78 913.91,193.54 912.69,193.70 911.48,193.27 910.26,192.24"/>
    </edge>
    <edge id=":10239494146_1" function="internal">
        <lane id=":10239494146_1_0" index="0" allow="pedestrian delivery bicycle" speed="4.45" length="3.74" shape="915.80,198.27 915.54,197.70 915.69,196.99 916.25,196.15 917.22,195.18"/>
    </edge>
    <edge id=":10239494146_2" function="internal">
        <lane id=":10239494146_2_0" index="0" disallow="tram rail_urban rail rail_electric rail_fast ship container cable_car subway aircraft wheelchair scooter drone" speed="22.22" length="8.10" shape="915.80,198.27 910.26,192.24"/>
        <lane id=":10239494146_2_1" index="1" disallow="tram rail_urban rail rail_electric rail_fast ship container cable_car subway aircraft wheelchair scooter drone" speed="22.22" length="8.10" shape="913.31,200.29 907.90,194.40"/>
    </edge>
    <edge id=":10239494146_4" function="internal">
        <lane id=":10239494146_4_0" index="0" allow="pedestrian delivery bicycle" speed="9.72" length="11.89" shape="907.67,202.21 910.10,200.06 912.34,198.59 914.64,197.17 917.22,195.18"/>
    </edge>
    <edge id=":10239494146_5" function="internal">
        <lane id=":10239494146_5_0" index="0" disallow="tram rail_urban rail rail_electric rail_fast ship container cable_car subway aircraft wheelchair scooter drone" speed="7.39" length="11.41" shape="907.67,202.21 910.09,199.25 911.33,196.60 911.39,194.26 910.26,192.24"/>
        <lane id=":10239494146_5_1" index="1" disallow="tram rail_urban rail rail_electric rail_fast ship container cable_car subway aircraft wheelchair scooter drone" speed="6.57" length="8.80" shape="907.67,202.21 909.11,200.25 909.63,198.29 909.22,196.34 907.90,194.40"/>
    </edge>
    <edge id=":10239511730_0" function="internal">
        <lane id=":10239511730_0_0" index="0" disallow="tram rail_urban rail rail_electric rail_fast ship container cable_car subway aircraft wheelchair scooter drone" speed="8.32" length="11.17" shape="891.27,746.99 888.20,748.50 885.43,749.13 882.97,748.87 880.81,747.74"/>
    </edge>
    <edge id=":10239511730_1" function="internal">
        <lane id=":10239511730_1_0" index="0" disallow="tram rail_urban rail rail_electric rail_fast ship container cable_car subway aircraft wheelchair scooter drone" speed="7.51" length="15.80" shape="891.27,746.99 887.71,749.90 886.40,752.93 887.33,756.11 890.51,759.42"/>
    </edge>
    <edge id=":10239511730_2" function="internal">
        <lane id=":10239511730_2_0" index="0" disallow="tram rail_urban rail rail_electric rail_fast ship container cable_car subway aircraft wheelchair scooter drone" speed="5.87" length="9.12" shape="892.49,756.90 890.65,754.99 890.11,753.16 890.87,751.41 892.93,749.73"/>
    </edge>
    <edge id=":10239511730_3" function="internal">
        <lane id=":10239511730_3_0" index="0" disallow="tram rail_urban rail rail_electric rail_fast ship container cable_car subway aircraft wheelchair scooter drone" speed="11.11" length="14.84" shape="892.49,756.90 880.81,747.74"/>
    </edge>
    <edge id=":10239511730_4" function="internal">
        <lane id=":10239511730_4_0" index="0" disallow="tram rail_urban rail rail_electric rail_fast ship container cable_car subway aircraft wheelchair scooter drone" speed="11.11" length="14.84" shape="878.84,750.25 890.51,759.42"/>
    </edge>
    <edge id=":10239511730_5" function="internal">
        <lane id=":10239511730_5_0" index="0" disallow="tram rail_urban rail rail_electric rail_fast ship container cable_car subway aircraft wheelchair scooter drone" speed="9.58" length="15.05" shape="878.84,750.25 881.88,751.92 885.24,752.38 888.92,751.66 892.93,749.73"/>
    </edge>
    <edge id=":10239511731_0" function="internal">
        <lane id=":10239511731_0_0" index="0" disallow="tram rail_urban rail rail_electric rail_fast ship container cable_car subway aircraft wheelchair scooter drone" speed="3.65" length="4.67" shape="928.79,728.03 929.40,726.72 929.33,725.83 928.57,725.35 927.13,725.29"/>
    </edge>
    <edge id=":10559308953_0" function="internal">
        <lane id=":10559308953_0_0" index="0" allow="pedestrian delivery bicycle" speed="3.65" length="4.67" shape="800.12,1452.47 799.32,1451.27 798.52,1450.87 797.72,1451.27 796.92,1452.47"/>
    </edge>
    <edge id=":10560774621_0" function="internal">
        <lane id=":10560774621_0_0" index="0" allow="pedestrian delivery bicycle" speed="5.56" length="0.10" shape="1754.43,1954.31 1754.43,1954.31"/>
    </edge>
    <edge id=":10560774621_1" function="internal">
        <lane id=":10560774621_1_0" index="0" allow="pedestrian delivery bicycle" speed="5.56" length="0.10" shape="1757.43,1955.41 1757.43,1955.41"/>
    </edge>
    <edge id=":10578717875_0" function="internal">
        <lane id=":10578717875_0_0" index="0" disallow="tram rail_urban rail rail_electric rail_fast ship container cable_car subway aircraft wheelchair scooter drone" speed="3.65" length="4.67" shape="2154.93,2063.08 2153.52,2063.39 2152.86,2063.99 2152.94,2064.88 2153.77,2066.06"/>
    </edge>
    <edge id=":10973329795_0" function="internal">
        <lane id=":10973329795_0_0" index="0" allow="pedestrian delivery bicycle" speed="3.65" length="4.67" shape="1863.45,1914.78 1863.42,1913.34 1862.96,1912.57 1862.07,1912.48 1860.75,1913.06"/>
    </edge>
    <edge id=":10991183618_0" function="internal">
        <lane id=":10991183618_0_0" index="0" disallow="tram rail_urban rail rail_electric rail_fast ship container cable_car subway aircraft wheelchair scooter drone" speed="6.51" length="8.79" shape="2221.69,2083.21 2220.44,2085.25 2218.83,2086.43 2216.86,2086.75 2214.52,2086.21"/>
    </edge>
    <edge id=":10991183618_1" function="internal">
        <lane id=":10991183618_1_0" index="0" disallow="tram rail_urban rail rail_electric rail_fast ship container cable_car subway aircraft wheelchair scooter drone" speed="13.89" length="13.76" shape="2221.69,2083.21 2220.35,2086.50 2219.26,2089.64 2218.36,2092.84 2217.61,2096.31"/>
    </edge>
    <edge id=":10991183618_2" function="internal">
        <lane id=":10991183618_2_0" index="0" disallow="tram rail_urban rail rail_electric rail_fast ship container cable_car subway aircraft wheelchair scooter drone" speed="13.89" length="13.07" shape="2220.75,2096.92 2221.48,2093.55 2222.30,2090.58 2223.32,2087.66 2224.63,2084.47"/>
    </edge>
    <edge id=":10991183618_3" function="internal">
        <lane id=":10991183618_3_0" index="0" disallow="tram rail_urban rail rail_electric rail_fast ship container cable_car subway aircraft wheelchair scooter drone" speed="8.42" length="3.68" shape="2220.75,2096.92 2220.92,2093.36 2220.88,2093.25"/>
    </edge>
    <edge id=":10991183618_6" function="internal">
        <lane id=":10991183618_6_0" index="0" disallow="tram rail_urban rail rail_electric rail_fast ship container cable_car subway aircraft wheelchair scooter drone" speed="8.42" length="9.95" shape="2220.88,2093.25 2219.93,2090.38 2217.80,2088.00 2214.52,2086.21"/>
    </edge>
    <edge id=":10991183618_4" function="internal">
        <lane id=":10991183618_4_0" index="0" disallow="tram rail_urban rail rail_electric rail_fast ship container cable_car subway aircraft wheelchair scooter drone" speed="6.99" length="9.12" shape="2213.36,2089.19 2215.59,2090.40 2217.04,2091.99 2217.71,2093.96 2217.61,2096.31"/>
    </edge>
    <edge id=":10991183618_5" function="internal">
        <lane id=":10991183618_5_0" index="0" disallow="tram rail_urban rail rail_electric rail_fast ship container cable_car subway aircraft wheelchair scooter drone" speed="8.01" length="13.82" shape="2213.36,2089.19 2217.03,2090.05 2220.13,2089.55 2222.66,2087.69 2224.63,2084.47"/>
    </edge>
    <edge id=":10991332997_0" function="internal">
        <lane id=":10991332997_0_0" index="0" allow="pedestrian delivery bicycle" speed="9.72" length="10.15" shape="2181.78,2194.27 2180.91,2191.41 2180.25,2189.44 2179.50,2187.50 2178.39,2184.72"/>
    </edge>
    <edge id=":10991332997_1" function="internal">
        <lane id=":10991332997_1_0" index="0" allow="pedestrian delivery bicycle" speed="5.56" length="10.76" shape="2181.78,2194.27 2180.67,2192.08 2178.86,2190.56 2176.32,2189.72 2173.06,2189.56"/>
    </edge>
    <edge id=":10991332997_2" function="internal">
        <lane id=":10991332997_2_0" index="0" allow="pedestrian delivery bicycle" speed="5.56" length="6.46" shape="2173.22,2192.76 2175.33,2192.82 2176.95,2193.24 2178.07,2194.03 2178.71,2195.17"/>
    </edge>
    <edge id=":10991332997_3" function="internal">
        <lane id=":10991332997_3_0" index="0" allow="pedestrian delivery bicycle" speed="6.68" length="11.98" shape="2173.22,2192.76 2176.62,2192.10 2178.61,2190.54 2179.20,2188.08 2178.39,2184.72"/>
    </edge>
    <edge id=":10991332997_4" function="internal">
        <lane id=":10991332997_4_0" index="0" allow="pedestrian delivery bicycle" speed="4.77" length="5.45" shape="2175.41,2185.90 2175.78,2187.43 2175.52,2188.55 2174.61,2189.26 2173.06,2189.56"/>
    </edge>
    <edge id=":10991332997_5" function="internal">
        <lane id=":10991332997_5_0" index="0" allow="pedestrian delivery bicycle" speed="9.72" length="9.84" shape="2175.41,2185.90 2176.50,2188.62 2177.22,2190.48 2177.86,2192.38 2178.71,2195.17"/>
    </edge>
    <edge id=":10991333004_0" function="internal">
        <lane id=":10991333004_0_0" index="0" allow="pedestrian delivery bicycle" speed="3.65" length="4.67" shape="2037.15,2270.46 2037.07,2271.90 2037.48,2272.69 2038.36,2272.85 2039.71,2272.36"/>
    </edge>
    <edge id=":11_0" function="internal">
        <lane id=":11_0_0" index="0" disallow="tram rail_urban rail rail_electric rail_fast ship container cable_car subway aircraft wheelchair scooter drone" speed="18.06" length="4.99" shape="878.13,1330.16 877.78,1335.14"/>
        <lane id=":11_0_1" index="1" disallow="tram rail_urban rail rail_electric rail_fast ship container cable_car subway aircraft wheelchair scooter drone" speed="18.06" length="4.99" shape="881.33,1330.39 880.97,1335.37"/>
        <lane id=":11_0_2" index="2" disallow="tram rail_urban rail rail_electric rail_fast ship container cable_car subway aircraft wheelchair scooter drone" speed="18.06" length="4.99" shape="884.52,1330.63 884.16,1335.59"/>
    </edge>
    <edge id=":11462375129_0" function="internal">
        <lane id=":11462375129_0_0" index="0" allow="pedestrian delivery bicycle" speed="5.56" length="4.35" shape="1751.67,1961.92 1750.18,1966.01"/>
    </edge>
    <edge id=":11462375129_1" function="internal">
        <lane id=":11462375129_1_0" index="0" allow="pedestrian delivery bicycle" speed="5.56" length="4.34" shape="1753.19,1967.10 1754.67,1963.01"/>
    </edge>
    <edge id=":11462375137_0" function="internal">
        <lane id=":11462375137_0_0" index="0" disallow="tram rail_urban rail rail_electric rail_fast ship container cable_car subway aircraft wheelchair scooter drone" speed="13.89" length="0.35" shape="1539.91,1824.95 1540.05,1824.63"/>
    </edge>
    <edge id=":11462375137_1" function="internal">
        <lane id=":11462375137_1_0" index="0" disallow="tram rail_urban rail rail_electric rail_fast ship container cable_car subway aircraft wheelchair scooter drone" speed="13.89" length="0.35" shape="1542.99,1825.89 1542.85,1826.21"/>
    </edge>
    <edge id=":11462377051_0" function="internal">
        <lane id=":11462377051_0_0" index="0" allow="pedestrian delivery bicycle" speed="5.56" length="0.29" shape="1263.16,1757.73 1263.09,1758.02"/>
    </edge>
    <edge id=":11462377051_1" function="internal">
        <lane id=":11462377051_1_0" index="0" allow="pedestrian delivery bicycle" speed="5.56" length="0.30" shape="1266.20,1758.77 1266.27,1758.48"/>
    </edge>
    <edge id=":11462385773_0" function="internal">
        <lane id=":11462385773_0_0" index="0" disallow="tram rail_urban rail rail_electric rail_fast ship container cable_car subway aircraft wheelchair scooter drone" speed="13.89" length="4.93" shape="2213.92,2115.51 2213.10,2120.37"/>
    </edge>
    <edge id=":11462385778_0" function="internal">
        <lane id=":11462385778_0_0" index="0" disallow="tram rail_urban rail rail_electric rail_fast ship container cable_car subway aircraft wheelchair scooter drone" speed="27.78" length="4.40" shape="2125.00,2104.33 2123.66,2103.84 2122.73,2103.52 2121.79,2103.26 2120.41,2102.93"/>
        <lane id=":11462385778_0_1" index="1" disallow="tram rail_urban rail rail_electric rail_fast ship container cable_car subway aircraft wheelchair scooter drone" speed="27.78" length="4.40" shape="2123.90,2107.33 2122.67,2106.88 2121.82,2106.59 2120.96,2106.35 2119.69,2106.05"/>
        <lane id=":11462385778_0_2" index="2" disallow="tram rail_urban rail rail_electric rail_fast ship container cable_car subway aircraft wheelchair scooter drone" speed="27.78" length="4.40" shape="2122.80,2110.34 2121.68,2109.93 2120.91,2109.67 2120.13,2109.44 2118.98,2109.17"/>
    </edge>
    <edge id=":11462385783_0" function="internal">
        <lane id=":11462385783_0_0" index="0" disallow="tram rail_urban rail rail_electric rail_fast ship container cable_car subway aircraft wheelchair scooter drone" speed="27.78" length="5.18" shape="1964.00,2054.44 1959.01,2053.04"/>
        <lane id=":11462385783_0_1" index="1" disallow="tram rail_urban rail rail_electric rail_fast ship container cable_car subway aircraft wheelchair scooter drone" speed="27.78" length="5.18" shape="1963.13,2057.52 1958.14,2056.12"/>
        <lane id=":11462385783_0_2" index="2" disallow="tram rail_urban rail rail_electric rail_fast ship container cable_car subway aircraft wheelchair scooter drone" speed="27.78" length="5.18" shape="1962.27,2060.60 1957.28,2059.20"/>
    </edge>